data_image0
_chemical_formula_structural       Au27Pt27OC2H3
_chemical_formula_sum              "Au27 Pt27 O1 C2 H3"
_cell_length_a       8.3238
_cell_length_b       8.3238
_cell_length_c       26.3273
_cell_angle_alpha    90
_cell_angle_beta     90
_cell_angle_gamma    120

_space_group_name_H-M_alt    "P 1"
_space_group_IT_number       1

loop_
  _space_group_symop_operation_xyz
  'x, y, z'

loop_
  _atom_site_type_symbol
  _atom_site_label
  _atom_site_symmetry_multiplicity
  _atom_site_fract_x
  _atom_site_fract_y
  _atom_site_fract_z
  _atom_site_occupancy
  Au  Au1       1.0  0.98344  0.00923  0.27486  1.0000
  Au  Au2       1.0  0.22222  0.11111  0.17830  1.0000
  Au  Au3       1.0  0.11111  0.22222  0.09225  1.0000
  Au  Au4       1.0  0.31703  0.00962  0.27472  1.0000
  Au  Au5       1.0  0.55556  0.11111  0.17830  1.0000
  Au  Au6       1.0  0.44444  0.22222  0.09225  1.0000
  Au  Au7       1.0  0.65035  0.00967  0.27481  1.0000
  Au  Au8       1.0  0.88889  0.11111  0.17830  1.0000
  Au  Au9       1.0  0.77778  0.22222  0.09225  1.0000
  Au  Au10      1.0  0.98312  0.34239  0.27492  1.0000
  Au  Au11      1.0  0.22222  0.44444  0.17830  1.0000
  Au  Au12      1.0  0.11111  0.55556  0.09225  1.0000
  Au  Au13      1.0  0.31707  0.34220  0.27505  1.0000
  Au  Au14      1.0  0.55556  0.44444  0.17830  1.0000
  Au  Au15      1.0  0.44444  0.55556  0.09225  1.0000
  Au  Au16      1.0  0.65021  0.34281  0.27641  1.0000
  Au  Au17      1.0  0.88889  0.44444  0.17830  1.0000
  Au  Au18      1.0  0.77778  0.55556  0.09225  1.0000
  Au  Au19      1.0  0.98331  0.67583  0.27483  1.0000
  Au  Au20      1.0  0.22222  0.77778  0.17830  1.0000
  Au  Au21      1.0  0.11111  0.88889  0.09225  1.0000
  Au  Au22      1.0  0.31713  0.67581  0.27366  1.0000
  Au  Au23      1.0  0.55556  0.77778  0.17830  1.0000
  Au  Au24      1.0  0.44444  0.88889  0.09225  1.0000
  Au  Au25      1.0  0.65050  0.67579  0.27501  1.0000
  Au  Au26      1.0  0.88889  0.77778  0.17830  1.0000
  Au  Au27      1.0  0.77778  0.88889  0.09225  1.0000
  Pt  Pt1       1.0  0.09135  0.23734  0.36750  1.0000
  Pt  Pt2       1.0  0.42488  0.23747  0.36924  1.0000
  Pt  Pt3       1.0  0.75807  0.23750  0.36915  1.0000
  Pt  Pt4       1.0  0.09183  0.57115  0.36679  1.0000
  Pt  Pt5       1.0  0.42455  0.57128  0.36676  1.0000
  Pt  Pt6       1.0  0.75801  0.57047  0.36908  1.0000
  Pt  Pt7       1.0  0.09136  0.90391  0.36752  1.0000
  Pt  Pt8       1.0  0.42458  0.90404  0.36671  1.0000
  Pt  Pt9       1.0  0.75813  0.90418  0.36733  1.0000
  Pt  Pt10      1.0  0.97034  0.01122  0.54524  1.0000
  Pt  Pt11      1.0  0.19862  0.12447  0.45602  1.0000
  Pt  Pt12      1.0  0.30243  0.01023  0.54521  1.0000
  Pt  Pt13      1.0  0.53245  0.12588  0.45785  1.0000
  Pt  Pt14      1.0  0.63646  0.01077  0.54512  1.0000
  Pt  Pt15      1.0  0.86567  0.12456  0.45603  1.0000
  Pt  Pt16      1.0  0.97166  0.34533  0.54491  1.0000
  Pt  Pt17      1.0  0.19904  0.45870  0.45512  1.0000
  Pt  Pt18      1.0  0.30295  0.34462  0.54487  1.0000
  Pt  Pt19      1.0  0.53245  0.45735  0.45753  1.0000
  Pt  Pt20      1.0  0.63752  0.34467  0.55453  1.0000
  Pt  Pt21      1.0  0.86431  0.45766  0.45777  1.0000
  Pt  Pt22      1.0  0.97100  0.67813  0.54560  1.0000
  Pt  Pt23      1.0  0.19888  0.79101  0.45544  1.0000
  Pt  Pt24      1.0  0.30377  0.67796  0.54488  1.0000
  Pt  Pt25      1.0  0.53192  0.79191  0.45497  1.0000
  Pt  Pt26      1.0  0.63662  0.67856  0.54410  1.0000
  Pt  Pt27      1.0  0.86583  0.79160  0.45591  1.0000
  O   O1        1.0  0.67112  0.21774  0.65141  1.0000
  C   C1        1.0  0.64082  0.33027  0.63063  1.0000
  C   C2        1.0  0.60332  0.46797  0.65894  1.0000
  H   H1        1.0  0.70743  0.60968  0.64727  1.0000
  H   H2        1.0  0.46663  0.44581  0.64730  1.0000
  H   H3        1.0  0.60867  0.44901  0.70019  1.0000
